Version 4
SHEET 1 2360 680
WIRE 1040 -784 176 -784
WIRE 176 -688 176 -784
WIRE 208 -688 176 -688
WIRE 208 -656 64 -656
WIRE 368 -640 336 -640
WIRE 448 -640 368 -640
WIRE 640 -640 576 -640
WIRE 816 -640 768 -640
WIRE 816 -608 816 -640
WIRE 880 -608 816 -608
WIRE 880 -576 768 -576
WIRE 352 -544 176 -544
WIRE 368 -544 368 -640
WIRE 368 -544 352 -544
WIRE 1040 -544 1040 -784
WIRE 1040 -544 1008 -544
WIRE 1104 -544 1040 -544
WIRE 1264 -544 1232 -544
WIRE 176 -480 176 -544
WIRE 208 -480 176 -480
WIRE 208 -448 176 -448
WIRE 368 -432 336 -432
WIRE 640 -432 368 -432
WIRE 768 -432 768 -576
WIRE 768 -432 640 -432
WIRE 176 -336 176 -448
WIRE 352 -336 176 -336
WIRE 368 -320 368 -432
WIRE 368 -320 176 -320
WIRE 176 -272 176 -320
WIRE 208 -272 176 -272
WIRE 352 -224 352 -336
WIRE 352 -224 336 -224
WIRE 1040 -32 176 -32
WIRE 176 64 176 -32
WIRE 208 64 176 64
WIRE 208 96 64 96
WIRE 368 112 336 112
WIRE 448 112 368 112
WIRE 640 112 576 112
WIRE 816 112 768 112
WIRE 816 144 816 112
WIRE 880 144 816 144
WIRE 880 176 768 176
WIRE 352 208 176 208
WIRE 368 208 368 112
WIRE 368 208 352 208
WIRE 1040 208 1040 -32
WIRE 1040 208 1008 208
WIRE 1104 208 1040 208
WIRE 1264 208 1232 208
WIRE 176 272 176 208
WIRE 208 272 176 272
WIRE 208 304 176 304
WIRE 368 320 336 320
WIRE 512 320 368 320
WIRE 768 320 768 176
WIRE 768 320 512 320
WIRE 176 416 176 304
WIRE 352 416 176 416
WIRE 368 432 368 320
WIRE 368 432 176 432
WIRE 176 480 176 432
WIRE 208 480 176 480
WIRE 352 528 352 416
WIRE 352 528 336 528
FLAG -64 96 CLOCK_IN
IOPIN -64 96 In
FLAG -64 128 VDD
FLAG 208 160 VDD
FLAG 208 368 VDD
FLAG 208 576 VDD
FLAG 208 512 RESET
FLAG 448 144 VDD
FLAG 640 144 VDD
FLAG 880 208 RESET
FLAG 880 272 VDD
FLAG 1104 240 VDD
FLAG 1264 208 DOWN
IOPIN 1264 208 Out
FLAG -64 -656 CLOCK_REF
IOPIN -64 -656 In
FLAG -64 -624 VDD
IOPIN -64 -624 In
FLAG 208 -592 VDD
FLAG 208 -384 VDD
FLAG 208 -176 VDD
FLAG 208 -240 RESET
FLAG 448 -608 VDD
FLAG 640 -608 VDD
FLAG 880 -544 RESET
FLAG 880 -480 VDD
FLAG 1104 -512 VDD
FLAG 1264 -544 UP
IOPIN 1264 -544 Out
FLAG 816 -128 VDD
FLAG 816 -288 A
FLAG 816 -256 B
FLAG 816 -224 C
FLAG 816 -192 D
FLAG 640 -432 A
FLAG 352 -544 B
FLAG 352 208 C
FLAG 512 320 D
FLAG 944 -208 RESET
FLAG 816 -160 GND
IOPIN 816 -160 In
FLAG 208 128 GND
IOPIN 208 128 In
FLAG 448 80 GND
IOPIN 448 80 In
FLAG 640 80 GND
IOPIN 640 80 In
FLAG 880 240 GND
IOPIN 880 240 In
FLAG 208 -208 GND
IOPIN 208 -208 In
FLAG 208 -416 GND
IOPIN 208 -416 In
FLAG -64 64 GND
IOPIN -64 64 In
FLAG 208 336 GND
IOPIN 208 336 In
FLAG 208 544 GND
IOPIN 208 544 In
FLAG 1104 176 GND
IOPIN 1104 176 In
FLAG 880 -512 GND
IOPIN 880 -512 In
FLAG 1104 -576 GND
IOPIN 1104 -576 In
FLAG 640 -672 GND
IOPIN 640 -672 In
FLAG 448 -672 GND
IOPIN 448 -672 In
FLAG 208 -624 GND
IOPIN 208 -624 In
FLAG -64 -688 GND
IOPIN -64 -688 In
SYMBOL INV_1 0 96 R0
SYMATTR InstName X1
SYMBOL NAND_2 272 112 R0
SYMATTR InstName X2
SYMBOL NAND_2 272 320 R0
SYMATTR InstName X3
SYMBOL NAND_2 272 528 R0
SYMATTR InstName X4
SYMBOL INV_1 512 112 R0
SYMATTR InstName X5
SYMBOL INV_1 704 112 R0
SYMATTR InstName X6
SYMBOL NAND_3 944 208 R0
SYMATTR InstName X7
SYMBOL INV_1 1168 208 R0
SYMATTR InstName X8
SYMBOL INV_1 0 -656 R0
SYMATTR InstName X9
SYMBOL NAND_2 272 -640 R0
SYMATTR InstName X10
SYMBOL NAND_2 272 -432 R0
SYMATTR InstName X11
SYMBOL NAND_2 272 -224 R0
SYMATTR InstName X12
SYMBOL INV_1 512 -640 R0
SYMATTR InstName X13
SYMBOL INV_1 704 -640 R0
SYMATTR InstName X14
SYMBOL NAND_3 944 -544 R0
SYMATTR InstName X15
SYMBOL INV_1 1168 -544 R0
SYMATTR InstName X16
SYMBOL NAND_4 880 -208 R0
SYMATTR InstName X17
TEXT 1152 -96 Left 2 !.include osu018.lib
