Version 4
SHEET 1 1952 680
WIRE 400 96 32 96
WIRE 448 96 400 96
WIRE 992 96 944 96
WIRE 992 128 992 96
WIRE 1072 128 992 128
WIRE 1248 160 1200 160
WIRE 1312 160 1248 160
WIRE 1328 160 1312 160
WIRE 1456 160 1328 160
WIRE 1792 160 1712 160
WIRE 1872 160 1792 160
WIRE 1072 192 992 192
WIRE 448 208 384 208
WIRE 992 224 992 192
WIRE 992 224 944 224
WIRE 384 512 384 208
WIRE 704 512 384 512
WIRE 944 512 912 512
WIRE 1184 512 1152 512
WIRE 1792 512 1792 160
WIRE 1792 512 1392 512
FLAG -512 464 0
FLAG -416 416 0
FLAG -336 352 0
FLAG -336 272 5MHz
FLAG -416 336 10MHz
FLAG -512 384 12MHz
FLAG -240 288 0
FLAG -240 208 VDD
FLAG 688 304 0
FLAG 688 32 VDD
FLAG 32 96 10MHz
FLAG 1328 304 0
FLAG 1248 224 0
FLAG 1872 160 F-0ut
FLAG 1312 576 0
FLAG 1312 448 VDD
FLAG 1072 96 VDD
FLAG 1072 224 0
FLAG 1568 224 0
FLAG 1568 112 VDD
FLAG 1072 576 0
FLAG 1072 448 VDD
FLAG 832 576 0
FLAG 832 448 VDD
FLAG 400 96 F-in
FLAG 1312 160 vco-in
SYMBOL voltage -336 256 R0
WINDOW 123 0 0 Left 0
WINDOW 39 0 0 Left 0
SYMATTR InstName V1
SYMATTR Value PULSE(0 1.8 10p 10p 10p 100n 200n)
SYMBOL voltage -416 320 R0
WINDOW 123 0 0 Left 0
WINDOW 39 0 0 Left 0
SYMATTR InstName V2
SYMATTR Value PULSE(0 1.8 10p 10p 10p 50n 100n)
SYMBOL voltage -512 368 R0
WINDOW 123 0 0 Left 0
WINDOW 39 0 0 Left 0
SYMATTR InstName V3
SYMATTR Value PULSE(0 1.8 10p 10p 10p 41n 83n)
SYMBOL voltage -240 192 R0
WINDOW 123 0 0 Left 0
WINDOW 39 0 0 Left 0
SYMATTR InstName V4
SYMATTR Value 1.8
SYMBOL Z_PDF 736 192 R0
SYMATTR InstName X1
SYMBOL charge_pump 1136 160 R0
SYMATTR InstName X2
SYMBOL cap 1232 160 R0
SYMATTR InstName C2
SYMATTR Value 100p
SYMBOL res 1312 144 R0
SYMATTR InstName R1
SYMATTR Value 10k
SYMBOL cap 1312 240 R0
SYMATTR InstName C1
SYMATTR Value 1000p
SYMBOL Z_DIV2 1312 512 R180
SYMATTR InstName X5
SYMBOL VCO_19_18 1584 160 R0
SYMATTR InstName X3
SYMBOL Z_DIV2 1072 512 R180
SYMATTR InstName X4
SYMBOL Z_DIV2 832 512 R180
SYMATTR InstName X6
TEXT -544 600 Left 2 !.tran 0 16u 10u
TEXT -544 632 Left 2 !.include osu018.lib
